Version 4
SHEET 1 1560 680
WIRE 1040 -32 512 -32
WIRE 144 80 32 80
WIRE 272 80 224 80
WIRE 400 80 336 80
WIRE 592 80 400 80
WIRE 944 80 800 80
WIRE 1072 80 944 80
WIRE 800 96 800 80
WIRE 592 112 592 80
WIRE 944 112 944 80
WIRE 32 144 32 80
WIRE 400 144 400 80
WIRE 592 224 592 192
WIRE 688 224 592 224
WIRE 800 224 800 176
WIRE 800 224 688 224
WIRE 944 224 944 192
WIRE 944 224 800 224
WIRE 512 256 512 -32
WIRE 1040 256 1040 -32
WIRE 1040 256 512 256
WIRE 688 320 688 224
WIRE 32 288 32 224
WIRE 400 288 400 224
WIRE 1072 288 1072 80
WIRE 768 320 688 320
WIRE 864 320 864 272
WIRE 864 320 832 320
WIRE 912 320 864 320
WIRE 688 352 688 320
WIRE 864 352 864 320
WIRE 688 528 688 432
WIRE 864 528 864 432
FLAG 32 288 0
FLAG 400 288 0
FLAG 752 112 Vb
IOPIN 752 112 BiDir
FLAG 752 160 Ve
IOPIN 752 160 BiDir
FLAG 592 80 Vb
IOPIN 592 80 BiDir
FLAG 592 224 Ve
IOPIN 592 224 BiDir
FLAG 1072 288 0
FLAG 688 528 0
FLAG 912 320 Vo
IOPIN 912 320 BiDir
FLAG 864 528 0
SYMBOL voltage 32 128 R0
WINDOW 123 24 124 Left 2
WINDOW 39 0 0 Left 0
SYMATTR Value2 AC 1
SYMATTR InstName Vsig
SYMATTR Value ""
SYMBOL res 240 64 R90
WINDOW 0 0 56 VBottom 2
WINDOW 3 32 56 VTop 2
SYMATTR InstName RSIG
SYMATTR Value 1
SYMBOL cap 336 64 R90
WINDOW 0 0 32 VBottom 2
WINDOW 3 32 32 VTop 2
SYMATTR InstName Cc1
SYMATTR Value 100µ
SYMBOL res 384 128 R0
SYMATTR InstName RB
SYMATTR Value 100k
SYMBOL res 928 96 R0
SYMATTR InstName ro
SYMATTR Value 1Meg
SYMBOL res 576 96 R0
SYMATTR InstName Rpi
SYMATTR Value 2k
SYMBOL g2 800 192 M180
SYMATTR InstName gm.vbe
SYMATTR Value 0.01
SYMBOL res 672 336 R0
SYMATTR InstName Rs1
SYMATTR Value 1k
SYMBOL cap 832 304 R90
WINDOW 0 0 32 VBottom 2
WINDOW 3 32 32 VTop 2
SYMATTR InstName Cc2
SYMATTR Value 10µ
SYMBOL res 848 336 R0
SYMATTR InstName RL1
SYMATTR Value 100k
TEXT 768 -16 Center 2 ;Modelo de Pequenos Sinais\nTBJ NPN
TEXT 0 488 Left 2 !.ac dec 10000 .1 100k
