Version 4
SHEET 1 1132 680
WIRE 224 -64 32 -64
WIRE 544 -64 304 -64
WIRE 1040 -64 544 -64
WIRE 1040 0 1040 -64
WIRE 544 48 544 -64
WIRE 848 64 832 64
WIRE 992 64 912 64
WIRE 32 128 32 -64
WIRE 544 208 544 128
WIRE 656 208 544 208
WIRE 832 208 832 64
WIRE 832 208 736 208
WIRE 832 288 832 208
WIRE 544 304 544 208
WIRE 32 432 32 208
WIRE 544 432 544 368
WIRE 544 432 32 432
WIRE 832 432 832 352
WIRE 832 432 544 432
WIRE 1040 432 1040 64
WIRE 1040 432 832 432
SYMBOL voltage 32 112 R0
WINDOW 123 0 0 Left 2
WINDOW 39 0 0 Left 2
SYMATTR InstName V1
SYMATTR Value SINE(0 100 60)
SYMBOL res 320 -80 R90
WINDOW 0 0 56 VBottom 2
WINDOW 3 32 56 VTop 2
SYMATTR InstName R1
SYMATTR Value 10
SYMBOL res 560 144 R180
WINDOW 0 36 76 Left 2
WINDOW 3 36 40 Left 2
SYMATTR InstName R2
SYMATTR Value 10k
SYMBOL res 640 224 R270
WINDOW 0 32 56 VTop 2
WINDOW 3 0 56 VBottom 2
SYMATTR InstName R3
SYMATTR Value 5k6
SYMBOL cap 528 304 R0
SYMATTR InstName C1
SYMATTR Value 150n
SYMBOL cap 816 288 R0
SYMATTR InstName C2
SYMATTR Value 150n
SYMBOL Misc\\TRIAC 1008 0 R0
SYMATTR InstName U1
SYMBOL Misc\\DIAC 912 32 R90
WINDOW 0 0 32 VBottom 2
WINDOW 3 64 32 VTop 2
SYMATTR InstName U2
TEXT -440 -40 Left 2 !.tran .2
