Version 4
SHEET 1 1076 680
WIRE 112 -96 80 -96
WIRE 272 -96 176 -96
WIRE -48 0 -96 0
WIRE 80 0 80 -96
WIRE 80 0 16 0
WIRE 112 0 80 0
WIRE 272 0 272 -96
WIRE 272 0 192 0
WIRE 800 48 768 48
WIRE 944 48 864 48
WIRE -512 80 -512 64
WIRE -512 80 -656 80
WIRE -656 96 -656 80
WIRE -512 96 -512 80
WIRE -96 160 -96 0
WIRE -96 160 -192 160
WIRE -64 160 -96 160
WIRE 80 160 80 0
WIRE 80 160 16 160
WIRE 144 160 80 160
WIRE 768 160 768 48
WIRE 768 160 656 160
WIRE 800 160 768 160
WIRE 944 160 944 48
WIRE 944 160 880 160
WIRE 1056 160 944 160
WIRE -192 176 -192 160
WIRE 272 176 272 0
WIRE 272 176 208 176
WIRE 336 176 272 176
WIRE 464 176 416 176
WIRE 656 176 656 160
WIRE 1056 176 1056 160
WIRE 144 192 80 192
WIRE 944 192 944 160
WIRE 80 256 80 192
WIRE 464 256 464 176
WIRE 1056 272 1056 256
FLAG -656 96 0
FLAG -512 -16 +vcc
IOPIN -512 -16 Out
FLAG -512 176 -vcc
IOPIN -512 176 Out
FLAG 176 144 +vcc
IOPIN 176 144 In
FLAG 176 208 -vcc
IOPIN 176 208 In
FLAG 80 256 0
FLAG -192 256 0
FLAG 464 256 0
FLAG 656 256 0
FLAG 944 256 0
FLAG 1056 272 0
SYMBOL voltage -512 -32 R0
SYMATTR InstName V1
SYMATTR Value 15
SYMBOL voltage -512 80 R0
SYMATTR InstName V2
SYMATTR Value 15
SYMBOL res 32 144 R90
WINDOW 0 0 56 VBottom 2
WINDOW 3 32 56 VTop 2
SYMATTR InstName R1
SYMATTR Value 1k
SYMBOL res 208 -16 R90
WINDOW 0 0 56 VBottom 2
WINDOW 3 32 56 VTop 2
SYMATTR InstName R2
SYMATTR Value 1k
SYMBOL cap 176 -112 R90
WINDOW 0 0 32 VBottom 2
WINDOW 3 32 32 VTop 2
SYMATTR InstName C1
SYMATTR Value .01µ
SYMBOL voltage -192 160 R0
WINDOW 123 24 124 Left 2
WINDOW 39 0 0 Left 2
SYMATTR Value2 AC 1
SYMATTR InstName Vsig
SYMATTR Value ""
SYMBOL res 432 160 R90
WINDOW 0 0 56 VBottom 2
WINDOW 3 32 56 VTop 2
SYMATTR InstName RL
SYMATTR Value 100k
SYMBOL Opamps\\AD795 176 112 R0
SYMATTR InstName U1
SYMBOL res 896 144 R90
WINDOW 0 0 56 VBottom 2
WINDOW 3 32 56 VTop 2
SYMATTR InstName R3
SYMATTR Value 2k
SYMBOL voltage 656 160 R0
WINDOW 123 24 124 Left 2
WINDOW 39 0 0 Left 0
SYMATTR InstName Vsig1
SYMATTR Value ""
SYMATTR Value2 AC 1
SYMBOL cap 928 192 R0
SYMATTR InstName C2
SYMATTR Value .005µ
SYMBOL cap 16 -16 R90
WINDOW 0 0 32 VBottom 2
WINDOW 3 32 32 VTop 2
SYMATTR InstName C3
SYMATTR Value .01µ
SYMBOL res 1072 272 R180
WINDOW 0 36 76 Left 2
WINDOW 3 36 40 Left 2
SYMATTR InstName R4
SYMATTR Value 2k
SYMBOL cap 864 32 R90
WINDOW 0 0 32 VBottom 2
WINDOW 3 32 32 VTop 2
SYMATTR InstName C4
SYMATTR Value .005µ
TEXT -536 304 Left 2 !.ac dec 1000 1 100000k
