Version 4
SHEET 1 2536 680
WIRE 864 -544 80 -544
WIRE 1104 -544 864 -544
WIRE 80 -480 80 -544
WIRE 864 -480 864 -544
WIRE 1104 -336 1104 -544
WIRE -288 -320 -288 -400
WIRE -128 -320 -128 -400
WIRE 80 -320 80 -400
WIRE 864 -288 864 -400
WIRE 1040 -288 864 -288
WIRE 864 -272 864 -288
WIRE -288 -192 -288 -240
WIRE -128 -192 -128 -240
WIRE 80 -160 80 -240
WIRE 208 -160 80 -160
WIRE 336 -160 288 -160
WIRE 512 -160 336 -160
WIRE 992 -160 592 -160
WIRE 1104 -160 1104 -240
WIRE 1104 -160 992 -160
WIRE 1968 -160 1888 -160
WIRE 2096 -160 2048 -160
WIRE 2256 -160 2176 -160
WIRE 2480 -160 2336 -160
WIRE 864 -128 864 -208
WIRE 80 -112 80 -160
WIRE 336 -112 336 -160
WIRE 1104 -112 1104 -160
WIRE 1408 -112 1104 -112
WIRE 992 -80 992 -160
WIRE 16 -64 -80 -64
WIRE 480 -64 400 -64
WIRE -80 -32 -80 -64
WIRE 480 -32 480 -64
WIRE 864 -32 864 -64
WIRE 928 -32 864 -32
WIRE 2480 -16 2480 -160
WIRE 2480 -16 2160 -16
WIRE -240 16 -352 16
WIRE -144 16 -240 16
WIRE 624 16 544 16
WIRE 1408 32 1408 -112
WIRE 2480 64 2480 -16
WIRE 80 80 80 -16
WIRE 176 80 80 80
WIRE 1888 80 1888 -160
WIRE 624 96 624 16
WIRE 336 112 336 -16
WIRE 432 112 336 112
WIRE -240 128 -240 16
WIRE 1104 128 1104 -112
WIRE 80 144 80 80
WIRE 336 144 336 112
WIRE 992 176 992 16
WIRE 1040 176 992 176
WIRE 176 192 176 80
WIRE 176 192 144 192
WIRE 272 192 176 192
WIRE 864 192 864 -32
WIRE 432 240 432 112
WIRE 800 240 432 240
WIRE -352 320 -352 16
WIRE -240 320 -240 208
WIRE -240 320 -352 320
WIRE -80 320 -80 64
WIRE -80 320 -240 320
WIRE 80 320 80 240
WIRE 80 320 -80 320
WIRE 336 320 336 240
WIRE 336 320 80 320
WIRE 480 320 480 64
WIRE 480 320 336 320
WIRE 624 320 624 176
WIRE 624 320 480 320
WIRE 864 320 864 288
WIRE 864 320 624 320
WIRE 1104 320 1104 224
WIRE 1104 320 864 320
WIRE 1408 320 1408 112
WIRE 1408 320 1104 320
WIRE 1888 320 1888 160
WIRE 2480 320 2480 144
WIRE 2480 320 1888 320
WIRE 480 384 480 320
FLAG 624 16 Input
IOPIN 624 16 BiDir
FLAG 480 384 0
FLAG -288 -192 0
FLAG -288 -400 Input
IOPIN -288 -400 BiDir
FLAG -128 -192 0
FLAG -128 -400 Vcc
IOPIN -128 -400 BiDir
FLAG 864 -544 Vcc
IOPIN 864 -544 In
FLAG 2480 320 0
SYMBOL npn 144 144 M0
SYMATTR InstName Q1
SYMATTR Value BC547C
SYMBOL npn 272 144 R0
SYMATTR InstName Q2
SYMATTR Value BC547C
SYMBOL pnp 400 -16 R180
SYMATTR InstName Q3
SYMATTR Value BC557C
SYMBOL pnp 544 64 R180
SYMATTR InstName Q4
SYMATTR Value BC557C
SYMBOL pnp -144 64 M180
SYMATTR InstName Q5
SYMATTR Value BC557C
SYMBOL pnp 16 -16 M180
SYMATTR InstName Q6
SYMATTR Value BC557C
SYMBOL pnp 928 16 M180
SYMATTR InstName Q7
SYMATTR Value 2N2907
SYMBOL npn 800 192 R0
SYMATTR InstName Q8
SYMATTR Value 2N2222
SYMBOL diode 848 -272 R0
WINDOW 3 -97 34 Left 2
SYMATTR Value 1N4148
SYMATTR InstName D1
SYMBOL diode 848 -128 R0
WINDOW 3 -98 37 Left 2
SYMATTR Value 1N4148
SYMATTR InstName D2
SYMBOL res -256 112 R0
SYMATTR InstName R1
SYMATTR Value 50k
SYMBOL res 608 80 R0
SYMATTR InstName R2
SYMATTR Value 50k
SYMBOL res 304 -176 R90
WINDOW 0 0 56 VBottom 2
WINDOW 3 32 56 VTop 2
SYMATTR InstName R3
SYMATTR Value 150
SYMBOL res 64 -336 R0
SYMATTR InstName R4
SYMATTR Value 15k
SYMBOL res 64 -496 R0
SYMATTR InstName R5
SYMATTR Value 15k
SYMBOL current 864 -480 R0
WINDOW 123 0 0 Left 0
WINDOW 39 0 0 Left 0
SYMATTR InstName I1
SYMATTR Value 50m
SYMBOL voltage -288 -336 R0
WINDOW 3 24 44 Left 2
WINDOW 123 24 72 Left 2
WINDOW 39 0 0 Left 0
SYMATTR Value SINE(0 10m 1k)
SYMATTR Value2 AC 1
SYMATTR InstName Vsignal
SYMBOL voltage -128 -336 R0
WINDOW 123 0 0 Left 0
WINDOW 39 0 0 Left 0
SYMATTR InstName Vcc
SYMATTR Value 12
SYMBOL res 608 -176 R90
WINDOW 0 0 56 VBottom 2
WINDOW 3 32 56 VTop 2
SYMATTR InstName R6
SYMATTR Value 15k
SYMBOL res 1392 16 R0
SYMATTR InstName R_Load
SYMATTR Value 1.3
SYMBOL voltage 2480 48 R0
WINDOW 123 0 0 Left 0
WINDOW 39 0 0 Left 0
SYMATTR InstName V1
SYMATTR Value 35
SYMBOL bi2 1888 80 R0
SYMATTR InstName B1
SYMATTR Value I=(V(vcc)-V(n005))*Ic(q9)
SYMBOL res 2176 -32 R90
WINDOW 0 0 56 VBottom 2
WINDOW 3 32 56 VTop 2
SYMATTR InstName R7
SYMATTR Value 62.5
SYMBOL npn 1040 -336 R0
SYMATTR InstName Q9
SYMATTR Value TIP29
SYMBOL npn 1040 128 R0
SYMATTR InstName Q10
SYMATTR Value TIP29
SYMBOL res 2064 -176 R90
WINDOW 0 0 56 VBottom 2
WINDOW 3 32 56 VTop 2
SYMATTR InstName R8
SYMATTR Value 4.167
SYMBOL res 2192 -176 R90
WINDOW 0 0 56 VBottom 2
WINDOW 3 32 56 VTop 2
SYMATTR InstName R9
SYMATTR Value .5
SYMBOL res 2352 -176 R90
WINDOW 0 0 56 VBottom 2
WINDOW 3 32 56 VTop 2
SYMATTR InstName R10
SYMATTR Value .1
TEXT -360 408 Left 2 !.tran .01
TEXT 1280 -512 Left 2 !.MODEL TIP29 NPN(Bf=200)
