Version 4
SHEET 1 912 760
WIRE 112 -192 -128 -192
WIRE 432 -192 176 -192
WIRE -128 -32 -128 -192
WIRE 96 -32 -128 -32
WIRE 432 -32 432 -192
WIRE 432 -32 176 -32
WIRE -272 160 -512 160
WIRE -128 160 -128 -32
WIRE -128 160 -272 160
WIRE 0 160 -128 160
WIRE 304 160 256 160
WIRE 416 160 384 160
WIRE 432 160 432 -32
WIRE 432 160 416 160
WIRE 640 160 432 160
WIRE 800 160 640 160
WIRE -512 256 -512 160
WIRE 416 336 416 160
WIRE 640 352 640 160
WIRE 800 352 800 160
WIRE -272 400 -272 160
WIRE 128 464 128 256
WIRE 416 464 416 416
WIRE 416 464 128 464
WIRE 640 464 640 416
WIRE 640 464 416 464
WIRE 800 464 800 432
WIRE 800 464 640 464
WIRE -512 576 -512 336
WIRE -272 576 -272 464
WIRE -272 576 -512 576
WIRE 128 688 128 464
WIRE -512 720 -512 576
FLAG -512 720 0
FLAG 128 688 0
SYMBOL PowerProducts\\LT1083-5 128 160 R0
SYMATTR InstName U1
SYMBOL voltage -512 240 R0
WINDOW 123 0 0 Left 2
WINDOW 39 24 124 Left 2
SYMATTR SpiceLine Rser=0
SYMATTR InstName V1
SYMATTR Value PWL(0 30 .5 30 .8 0)
SYMBOL cap -288 400 R0
SYMATTR InstName C1
SYMATTR Value 100µ
SYMBOL res 400 320 R0
SYMATTR InstName R1
SYMATTR Value 100
SYMBOL res 192 -48 R90
WINDOW 0 0 56 VBottom 2
WINDOW 3 32 56 VTop 2
SYMATTR InstName R2
SYMATTR Value 50
SYMBOL res 400 144 R90
WINDOW 0 0 56 VBottom 2
WINDOW 3 32 56 VTop 2
SYMATTR InstName R3
SYMATTR Value .001
SYMBOL diode 176 -208 R90
WINDOW 0 0 32 VBottom 2
WINDOW 3 32 32 VTop 2
SYMATTR InstName D1
SYMATTR Value MURS120
SYMBOL cap 624 352 R0
SYMATTR InstName C2
SYMATTR Value 10000µ
SYMBOL res 784 336 R0
SYMATTR InstName R4
SYMATTR Value 10
TEXT -544 744 Left 2 !.tran 1
