Version 4
SHEET 1 1060 760
WIRE 416 -112 304 -112
WIRE 736 -112 480 -112
WIRE 128 0 -128 0
WIRE 304 0 304 -112
WIRE 304 0 208 0
WIRE 400 0 304 0
WIRE 736 0 736 -112
WIRE 736 0 496 0
WIRE 848 0 736 0
WIRE -128 64 -128 0
WIRE -48 64 -128 64
WIRE 272 64 16 64
WIRE 848 144 848 0
WIRE -272 160 -512 160
WIRE -128 160 -128 64
WIRE -128 160 -272 160
WIRE 0 160 -128 160
WIRE 272 160 272 64
WIRE 272 160 256 160
WIRE 288 160 272 160
WIRE 416 160 368 160
WIRE 448 160 448 64
WIRE 448 160 416 160
WIRE 592 160 448 160
WIRE -512 256 -512 160
WIRE 736 272 736 0
WIRE 416 336 416 160
WIRE 848 352 848 224
WIRE -272 400 -272 160
WIRE 592 432 592 160
WIRE 128 464 128 256
WIRE 416 464 416 416
WIRE 416 464 128 464
WIRE 128 496 128 464
WIRE -512 576 -512 336
WIRE -272 576 -272 464
WIRE -272 576 -512 576
WIRE 592 608 592 496
WIRE 736 608 736 336
WIRE 736 608 592 608
WIRE 848 608 848 432
WIRE 848 608 736 608
WIRE 592 656 592 608
WIRE 128 688 128 560
WIRE -512 720 -512 576
FLAG -512 720 0
FLAG 128 688 0
FLAG 592 656 0
SYMBOL PowerProducts\\LT1083-5 128 160 R0
SYMATTR InstName U1
SYMBOL voltage -512 240 R0
WINDOW 123 0 0 Left 2
SYMATTR SpiceLine Rser=0
SYMATTR InstName V1
SYMATTR Value PWL(0 30 .5 30 .7 0)
SYMBOL cap -288 400 R0
SYMATTR InstName C1
SYMATTR Value 100µ
SYMBOL res 400 320 R0
SYMATTR InstName R1
SYMATTR Value 10
SYMBOL cap 576 432 R0
SYMATTR InstName C2
SYMATTR Value 100µ
SYMBOL npn 400 64 R270
SYMATTR InstName Q1
SYMBOL res 832 336 R0
SYMATTR InstName R2
SYMATTR Value 100
SYMBOL diode 112 496 R0
SYMATTR InstName D1
SYMBOL res 272 176 R270
WINDOW 0 32 56 VTop 2
WINDOW 3 0 56 VBottom 2
SYMATTR InstName R3
SYMATTR Value .0001
SYMBOL res 112 16 R270
WINDOW 0 32 56 VTop 2
WINDOW 3 0 56 VBottom 2
SYMATTR InstName R4
SYMATTR Value .0001
SYMBOL cap 720 272 R0
SYMATTR InstName C3
SYMATTR Value 10000µ
SYMBOL diode 16 48 R90
WINDOW 0 0 32 VBottom 2
WINDOW 3 32 32 VTop 2
SYMATTR InstName D3
SYMATTR Value MURS320
SYMBOL ind 832 128 R0
SYMATTR InstName L1
SYMATTR Value 1m
SYMBOL diode 480 -128 R90
WINDOW 0 0 32 VBottom 2
WINDOW 3 32 32 VTop 2
SYMATTR InstName D2
TEXT -544 744 Left 2 !.tran 1
